version 2
1
1
.ac dec 100 10Meg 100Meg{return}.kicad adjustpaths{return}.save all{return}.probe alli
1
9
V(Net-_C3-Pad1_)
 
