version 2
1
9
.tran 1n 100n{return}.kicad adjustpaths{return}.save all{return}.probe alli
2
1
V(Net-_C405-Pad2_)
 
1
V(Net-_Q401-G_)
 
